! ansys_p4_3d_h112_sc_coarse_e31m_2026-09-24.inp
! e31 SIGN CLONE (2026-09-24, clone_e31m_decks_2026-09-24.py, LESSONS Sec 18.244).
! Parent: ansys_p4_3d_h112_sc_coarse_2026-09-23.inp. Only changes: E31 = -4.1E-3 (Liu 2002 / Duan 2005
! Table 1 as printed) and every *CFOPEN output name + '_e31m'.
! Targets quoted in the parent header below are the OLD +4.1 values.
! Do not put the MAPDL failure token in this file.
! ansys_p4_3d_h112_sc_coarse_2026-09-23.inp
! Paper 4 -- 3-D FE check of coupled n >= 1 F-F roots (FUTURE_WORK.md).
! Built by build_p4_3d_nge1_decks_2026-09-23.py. Do not hand-edit; rebuild.
! Layered F-F annulus, SOLID226 (KEYOPT(1)=1001), HALF model theta=0..180,
! UY=0 on y=0 (cos(n theta) family). h1/2h = 1/12. Case: both-faces short circuit, VOLT=0 on interfaces and outers.
! Mesh coarse: 24 radial x 72 circ x (2 host + 1 + 1 skins) = 6912 elements.
! Units mm-N-s-tonne, real volts, RELATIVE permittivity (epsrel decks).
! Poling +Z in both skins (same-poling parallel bimorph, paper Eq. Mp).
! Prints raw Hz and raw UX/UY/UZ/VOLT at 78 sample nodes only.
! Score with score_p4_3d_nge1_2026-09-23.py. Never trust .QUEUE_OK alone.
! ============================================================
FINISH
/CLEAR,NOSTART
/TITLE, Paper 4 3-D half ring SOLID226 sc coarse h1/2h=1/12 (2026-09-23)

RI     = 100.0
RO     = 600.0
H      = 10.0           ! host HALF-thickness [mm]
H1     = 2*H/12          ! skin thickness [mm]
TH1    = 0.0
TH2    = 180.0
NDIV_R = 24
NDIV_TH = 72
NDIV_ZH = 2
NDIV_ZP = 1
NMODES = 24

! ---- steel host (TB,ANEL numbers as the PLANE223 epsrel decks) ----
E_STEEL   = 2.00E5
NU_STEEL  = 0.3
RHO_STEEL = 7.800E-9
DS11 = E_STEEL*(1-NU_STEEL)/((1+NU_STEEL)*(1-2*NU_STEEL))
DS12 = E_STEEL*NU_STEEL/((1+NU_STEEL)*(1-2*NU_STEEL))
GS   = E_STEEL/(2*(1+NU_STEEL))
X_INERT = 1.0

! ---- PZT-4, Duan 2005 Table 1 (as every Paper 4 deck) ----
C11E = 1.320E5
C12E = 7.100E4
C13E = 7.300E4
C33E = 1.150E5
C44E = 7.300E4
C66E = (C11E-C12E)/2
E31  = -4.1E-3    ! e31 SIGN CLONE: was +4.1E-3
E33  = 1.41E-2
E15  = 1.05E-2
EPS0   = 8.854E-12
X11ABS = 7.124E-9
X33ABS = 5.841E-9
X11    = X11ABS/EPS0
X33    = X33ABS/EPS0
RHO_PZT = 7.500E-9

/PREP7
ET,1,SOLID226
KEYOPT,1,1,1001

! Material 1: steel. ANSYS order x, y, z, xy, yz, xz.
TB,ANEL,1,1,,0
TBDATA,1,DS11,DS12,DS12,0,0,0
TBDATA,7,DS11,DS12,0,0,0
TBDATA,12,DS11,0,0,0
TBDATA,16,GS,0,0
TBDATA,19,GS,0
TBDATA,21,GS
TB,PIEZ,1
TBDATA,1,0,0,0,0,0,0
TBDATA,7,0,0,0,0,0,0
TBDATA,13,0,0,0,0,0,0
MP,PERX,1,X_INERT
MP,PERY,1,X_INERT
MP,PERZ,1,X_INERT
MP,DENS,1,RHO_STEEL

! Material 2: PZT-4, poled +Z (Paper 6 SOLID226 block).
TB,ANEL,2,1,,0
TBDATA,1,C11E,C12E,C13E,0,0,0
TBDATA,7,C11E,C13E,0,0,0
TBDATA,12,C33E,0,0,0
TBDATA,16,C66E,0,0
TBDATA,19,C44E,0
TBDATA,21,C44E
TB,PIEZ,2
TBDATA,1,0,0,E31,0,0,E31
TBDATA,7,0,0,E33,0,0,0
TBDATA,13,0,E15,0,E15,0,0
MP,PERX,2,X11
MP,PERY,2,X11
MP,PERZ,2,X33
MP,DENS,2,RHO_PZT

! ---- geometry: three stacked half-annulus volumes, glued ----
CSYS,0
CYLIND,RI,RO,-H,H,TH1,TH2
CYLIND,RI,RO,H,H+H1,TH1,TH2
CYLIND,RI,RO,-H-H1,-H,TH1,TH2
VGLUE,ALL
*GET,NV,VOLU,0,COUNT
*IF,NV,NE,3,THEN
  *MSG,FATAL
VGLUE did not leave exactly three volumes.
*ENDIF
*GET,NLT,LINE,0,COUNT
*IF,NLT,NE,28,THEN
  *MSG,FATAL
Glued model does not have 28 lines.
*ENDIF
VSEL,S,LOC,Z,-0.166667,0.166667
*GET,NV,VOLU,0,COUNT
*IF,NV,NE,1,THEN
  *MSG,FATAL
host volume select did not return one volume.
*ENDIF
VATT,1,,1
ALLSEL,ALL
VSEL,S,LOC,Z,10.666667,11.000000
*GET,NV,VOLU,0,COUNT
*IF,NV,NE,1,THEN
  *MSG,FATAL
top skin volume select did not return one volume.
*ENDIF
VATT,2,,1
ALLSEL,ALL
VSEL,S,LOC,Z,-11.000000,-10.666667
*GET,NV,VOLU,0,COUNT
*IF,NV,NE,1,THEN
  *MSG,FATAL
bottom skin volume select did not return one volume.
*ENDIF
VATT,2,,1
ALLSEL,ALL

! ---- line divisions (CSYS,1: LOC X is r) ----
CSYS,1
! radial lines z1
LSEL,S,LOC,X,349.000000,351.000000
LSEL,R,LOC,Z,-11.833333,-11.500000
*GET,NL,LINE,0,COUNT
*IF,NL,NE,2,THEN
  *MSG,FATAL
radial lines z1: line count was not 2.
*ENDIF
LESIZE,ALL,,,24
ALLSEL,ALL
! inner arc z1
LSEL,S,LOC,X,99.700000,100.300000
LSEL,R,LOC,Z,-11.833333,-11.500000
*GET,NL,LINE,0,COUNT
*IF,NL,NE,1,THEN
  *MSG,FATAL
inner arc z1: line count was not 1.
*ENDIF
LESIZE,ALL,,,72
ALLSEL,ALL
! outer arc z1
LSEL,S,LOC,X,599.700000,600.300000
LSEL,R,LOC,Z,-11.833333,-11.500000
*GET,NL,LINE,0,COUNT
*IF,NL,NE,1,THEN
  *MSG,FATAL
outer arc z1: line count was not 1.
*ENDIF
LESIZE,ALL,,,72
ALLSEL,ALL
! radial lines z2
LSEL,S,LOC,X,349.000000,351.000000
LSEL,R,LOC,Z,-10.166667,-9.833333
*GET,NL,LINE,0,COUNT
*IF,NL,NE,2,THEN
  *MSG,FATAL
radial lines z2: line count was not 2.
*ENDIF
LESIZE,ALL,,,24
ALLSEL,ALL
! inner arc z2
LSEL,S,LOC,X,99.700000,100.300000
LSEL,R,LOC,Z,-10.166667,-9.833333
*GET,NL,LINE,0,COUNT
*IF,NL,NE,1,THEN
  *MSG,FATAL
inner arc z2: line count was not 1.
*ENDIF
LESIZE,ALL,,,72
ALLSEL,ALL
! outer arc z2
LSEL,S,LOC,X,599.700000,600.300000
LSEL,R,LOC,Z,-10.166667,-9.833333
*GET,NL,LINE,0,COUNT
*IF,NL,NE,1,THEN
  *MSG,FATAL
outer arc z2: line count was not 1.
*ENDIF
LESIZE,ALL,,,72
ALLSEL,ALL
! radial lines z3
LSEL,S,LOC,X,349.000000,351.000000
LSEL,R,LOC,Z,9.833333,10.166667
*GET,NL,LINE,0,COUNT
*IF,NL,NE,2,THEN
  *MSG,FATAL
radial lines z3: line count was not 2.
*ENDIF
LESIZE,ALL,,,24
ALLSEL,ALL
! inner arc z3
LSEL,S,LOC,X,99.700000,100.300000
LSEL,R,LOC,Z,9.833333,10.166667
*GET,NL,LINE,0,COUNT
*IF,NL,NE,1,THEN
  *MSG,FATAL
inner arc z3: line count was not 1.
*ENDIF
LESIZE,ALL,,,72
ALLSEL,ALL
! outer arc z3
LSEL,S,LOC,X,599.700000,600.300000
LSEL,R,LOC,Z,9.833333,10.166667
*GET,NL,LINE,0,COUNT
*IF,NL,NE,1,THEN
  *MSG,FATAL
outer arc z3: line count was not 1.
*ENDIF
LESIZE,ALL,,,72
ALLSEL,ALL
! radial lines z4
LSEL,S,LOC,X,349.000000,351.000000
LSEL,R,LOC,Z,11.500000,11.833333
*GET,NL,LINE,0,COUNT
*IF,NL,NE,2,THEN
  *MSG,FATAL
radial lines z4: line count was not 2.
*ENDIF
LESIZE,ALL,,,24
ALLSEL,ALL
! inner arc z4
LSEL,S,LOC,X,99.700000,100.300000
LSEL,R,LOC,Z,11.500000,11.833333
*GET,NL,LINE,0,COUNT
*IF,NL,NE,1,THEN
  *MSG,FATAL
inner arc z4: line count was not 1.
*ENDIF
LESIZE,ALL,,,72
ALLSEL,ALL
! outer arc z4
LSEL,S,LOC,X,599.700000,600.300000
LSEL,R,LOC,Z,11.500000,11.833333
*GET,NL,LINE,0,COUNT
*IF,NL,NE,1,THEN
  *MSG,FATAL
outer arc z4: line count was not 1.
*ENDIF
LESIZE,ALL,,,72
ALLSEL,ALL
! inner thickness lines, bottom skin
LSEL,S,LOC,X,99.700000,100.300000
LSEL,R,LOC,Z,-11.000000,-10.666667
*GET,NL,LINE,0,COUNT
*IF,NL,NE,2,THEN
  *MSG,FATAL
inner thickness lines, bottom skin: line count was not 2.
*ENDIF
LESIZE,ALL,,,1
ALLSEL,ALL
! outer thickness lines, bottom skin
LSEL,S,LOC,X,599.700000,600.300000
LSEL,R,LOC,Z,-11.000000,-10.666667
*GET,NL,LINE,0,COUNT
*IF,NL,NE,2,THEN
  *MSG,FATAL
outer thickness lines, bottom skin: line count was not 2.
*ENDIF
LESIZE,ALL,,,1
ALLSEL,ALL
! inner thickness lines, host
LSEL,S,LOC,X,99.700000,100.300000
LSEL,R,LOC,Z,-0.166667,0.166667
*GET,NL,LINE,0,COUNT
*IF,NL,NE,2,THEN
  *MSG,FATAL
inner thickness lines, host: line count was not 2.
*ENDIF
LESIZE,ALL,,,2
ALLSEL,ALL
! outer thickness lines, host
LSEL,S,LOC,X,599.700000,600.300000
LSEL,R,LOC,Z,-0.166667,0.166667
*GET,NL,LINE,0,COUNT
*IF,NL,NE,2,THEN
  *MSG,FATAL
outer thickness lines, host: line count was not 2.
*ENDIF
LESIZE,ALL,,,2
ALLSEL,ALL
! inner thickness lines, top skin
LSEL,S,LOC,X,99.700000,100.300000
LSEL,R,LOC,Z,10.666667,11.000000
*GET,NL,LINE,0,COUNT
*IF,NL,NE,2,THEN
  *MSG,FATAL
inner thickness lines, top skin: line count was not 2.
*ENDIF
LESIZE,ALL,,,1
ALLSEL,ALL
! outer thickness lines, top skin
LSEL,S,LOC,X,599.700000,600.300000
LSEL,R,LOC,Z,10.666667,11.000000
*GET,NL,LINE,0,COUNT
*IF,NL,NE,2,THEN
  *MSG,FATAL
outer thickness lines, top skin: line count was not 2.
*ENDIF
LESIZE,ALL,,,1
ALLSEL,ALL
CSYS,0
ALLSEL,ALL
MSHAPE,0,3D
MSHKEY,1
VMESH,ALL
ALLSEL,ALL
*GET,NEL,ELEM,0,COUNT
*IF,NEL,NE,6912,THEN
  *MSG,FATAL
Mapped mesh element count does not equal the division product.
*ENDIF
ESEL,S,MAT,,2
*GET,NELP,ELEM,0,COUNT
*IF,NELP,NE,3456,THEN
  *MSG,FATAL
Piezo-skin element count is wrong.
*ENDIF
ALLSEL,ALL
*GET,NNODE,NODE,0,COUNT
FINISH

/SOLU
ANTYPE,MODAL
MODOPT,LANB,NMODES,-1.0,,,ON
MXPAND,NMODES,,,NO
CSYS,0
! symmetry plane y=0 (theta=0 and theta=180 faces): UY=0 only
NSEL,S,LOC,Y,-0.001,0.001
*GET,NSYM,NODE,0,COUNT
*IF,NSYM,NE,690,THEN
  *MSG,FATAL
Symmetry-plane node count is wrong.
*ENDIF
D,ALL,UY,0
ALLSEL,ALL
! inner electrodes (host/skin interfaces) grounded in every case
NSEL,S,LOC,Z,9.990000,10.010000
NSEL,A,LOC,Z,-10.010000,-9.990000
*GET,NINT,NODE,0,COUNT
*IF,NINT,NE,10754,THEN
  *MSG,FATAL
Interface electrode node count is wrong.
*ENDIF
D,ALL,VOLT,0
ALLSEL,ALL
! outer electrodes z = +-(H+H1)
NSEL,S,LOC,Z,11.656667,11.676667
NSEL,A,LOC,Z,-11.676667,-11.656667
*GET,NOUT,NODE,0,COUNT
*IF,NOUT,NE,10754,THEN
  *MSG,FATAL
Outer electrode node count is wrong.
*ENDIF
D,ALL,VOLT,0
ALLSEL,ALL
SOLVE
FINISH

/POST1
*DIM,FR1,ARRAY,NMODES
*DIM,IDXARR,ARRAY,NMODES
*DO,I,1,NMODES
  *GET,FR1(I),MODE,I,FREQ
  IDXARR(I)=I
*ENDDO
*CFOPEN,ansys_p4_3d_h112_sc_coarse_modes_e31m,txt
*VWRITE
('tag h112_sc_coarse')
*VWRITE,NEL
('elements ', F12.0)
*VWRITE,NNODE
('nodes ', F12.0)
*VWRITE,NSYM
('symmetry_nodes ', F12.0)
*VWRITE,NINT
('interface_nodes ', F12.0)
*VWRITE,NOUT
('outer_nodes ', F12.0)
*VWRITE
('mode f_Hz')
*VWRITE,IDXARR(1),FR1(1)
(F4.0, 3X, E20.12)
*CFCLOS

! ---- sample nodes: located once, before any mode loop ----
NSAMP = 78
*DIM,SX,ARRAY,NSAMP
*DIM,SY,ARRAY,NSAMP
*DIM,SZ,ARRAY,NSAMP
*DIM,SR,ARRAY,NSAMP
*DIM,ST,ARRAY,NSAMP
*DIM,SKI,ARRAY,NSAMP
*DIM,NS,ARRAY,NSAMP
SX(1) = 100.000000000
SY(1) = 0.000000000
SZ(1) = 11.666666667
SR(1) = 100.000
ST(1) = 0.000
SKI(1) = 1
SX(2) = 96.592582629
SY(2) = 25.881904510
SZ(2) = 11.666666667
SR(2) = 100.000
ST(2) = 15.000
SKI(2) = 2
SX(3) = 86.602540378
SY(3) = 50.000000000
SZ(3) = 11.666666667
SR(3) = 100.000
ST(3) = 30.000
SKI(3) = 3
SX(4) = 70.710678119
SY(4) = 70.710678119
SZ(4) = 11.666666667
SR(4) = 100.000
ST(4) = 45.000
SKI(4) = 4
SX(5) = 50.000000000
SY(5) = 86.602540378
SZ(5) = 11.666666667
SR(5) = 100.000
ST(5) = 60.000
SKI(5) = 5
SX(6) = 25.881904510
SY(6) = 96.592582629
SZ(6) = 11.666666667
SR(6) = 100.000
ST(6) = 75.000
SKI(6) = 6
SX(7) = 0.000000000
SY(7) = 100.000000000
SZ(7) = 11.666666667
SR(7) = 100.000
ST(7) = 90.000
SKI(7) = 7
SX(8) = -25.881904510
SY(8) = 96.592582629
SZ(8) = 11.666666667
SR(8) = 100.000
ST(8) = 105.000
SKI(8) = 8
SX(9) = -50.000000000
SY(9) = 86.602540378
SZ(9) = 11.666666667
SR(9) = 100.000
ST(9) = 120.000
SKI(9) = 9
SX(10) = -70.710678119
SY(10) = 70.710678119
SZ(10) = 11.666666667
SR(10) = 100.000
ST(10) = 135.000
SKI(10) = 10
SX(11) = -86.602540378
SY(11) = 50.000000000
SZ(11) = 11.666666667
SR(11) = 100.000
ST(11) = 150.000
SKI(11) = 11
SX(12) = -96.592582629
SY(12) = 25.881904510
SZ(12) = 11.666666667
SR(12) = 100.000
ST(12) = 165.000
SKI(12) = 12
SX(13) = -100.000000000
SY(13) = 0.000000000
SZ(13) = 11.666666667
SR(13) = 100.000
ST(13) = 180.000
SKI(13) = 13
SX(14) = 225.000000000
SY(14) = 0.000000000
SZ(14) = 11.666666667
SR(14) = 225.000
ST(14) = 0.000
SKI(14) = 14
SX(15) = 217.333310915
SY(15) = 58.234285148
SZ(15) = 11.666666667
SR(15) = 225.000
ST(15) = 15.000
SKI(15) = 15
SX(16) = 194.855715851
SY(16) = 112.500000000
SZ(16) = 11.666666667
SR(16) = 225.000
ST(16) = 30.000
SKI(16) = 16
SX(17) = 159.099025767
SY(17) = 159.099025767
SZ(17) = 11.666666667
SR(17) = 225.000
ST(17) = 45.000
SKI(17) = 17
SX(18) = 112.500000000
SY(18) = 194.855715851
SZ(18) = 11.666666667
SR(18) = 225.000
ST(18) = 60.000
SKI(18) = 18
SX(19) = 58.234285148
SY(19) = 217.333310915
SZ(19) = 11.666666667
SR(19) = 225.000
ST(19) = 75.000
SKI(19) = 19
SX(20) = 0.000000000
SY(20) = 225.000000000
SZ(20) = 11.666666667
SR(20) = 225.000
ST(20) = 90.000
SKI(20) = 20
SX(21) = -58.234285148
SY(21) = 217.333310915
SZ(21) = 11.666666667
SR(21) = 225.000
ST(21) = 105.000
SKI(21) = 21
SX(22) = -112.500000000
SY(22) = 194.855715851
SZ(22) = 11.666666667
SR(22) = 225.000
ST(22) = 120.000
SKI(22) = 22
SX(23) = -159.099025767
SY(23) = 159.099025767
SZ(23) = 11.666666667
SR(23) = 225.000
ST(23) = 135.000
SKI(23) = 23
SX(24) = -194.855715851
SY(24) = 112.500000000
SZ(24) = 11.666666667
SR(24) = 225.000
ST(24) = 150.000
SKI(24) = 24
SX(25) = -217.333310915
SY(25) = 58.234285148
SZ(25) = 11.666666667
SR(25) = 225.000
ST(25) = 165.000
SKI(25) = 25
SX(26) = -225.000000000
SY(26) = 0.000000000
SZ(26) = 11.666666667
SR(26) = 225.000
ST(26) = 180.000
SKI(26) = 26
SX(27) = 350.000000000
SY(27) = 0.000000000
SZ(27) = 11.666666667
SR(27) = 350.000
ST(27) = 0.000
SKI(27) = 27
SX(28) = 338.074039201
SY(28) = 90.586665786
SZ(28) = 11.666666667
SR(28) = 350.000
ST(28) = 15.000
SKI(28) = 28
SX(29) = 303.108891325
SY(29) = 175.000000000
SZ(29) = 11.666666667
SR(29) = 350.000
ST(29) = 30.000
SKI(29) = 29
SX(30) = 247.487373415
SY(30) = 247.487373415
SZ(30) = 11.666666667
SR(30) = 350.000
ST(30) = 45.000
SKI(30) = 30
SX(31) = 175.000000000
SY(31) = 303.108891325
SZ(31) = 11.666666667
SR(31) = 350.000
ST(31) = 60.000
SKI(31) = 31
SX(32) = 90.586665786
SY(32) = 338.074039201
SZ(32) = 11.666666667
SR(32) = 350.000
ST(32) = 75.000
SKI(32) = 32
SX(33) = 0.000000000
SY(33) = 350.000000000
SZ(33) = 11.666666667
SR(33) = 350.000
ST(33) = 90.000
SKI(33) = 33
SX(34) = -90.586665786
SY(34) = 338.074039201
SZ(34) = 11.666666667
SR(34) = 350.000
ST(34) = 105.000
SKI(34) = 34
SX(35) = -175.000000000
SY(35) = 303.108891325
SZ(35) = 11.666666667
SR(35) = 350.000
ST(35) = 120.000
SKI(35) = 35
SX(36) = -247.487373415
SY(36) = 247.487373415
SZ(36) = 11.666666667
SR(36) = 350.000
ST(36) = 135.000
SKI(36) = 36
SX(37) = -303.108891325
SY(37) = 175.000000000
SZ(37) = 11.666666667
SR(37) = 350.000
ST(37) = 150.000
SKI(37) = 37
SX(38) = -338.074039201
SY(38) = 90.586665786
SZ(38) = 11.666666667
SR(38) = 350.000
ST(38) = 165.000
SKI(38) = 38
SX(39) = -350.000000000
SY(39) = 0.000000000
SZ(39) = 11.666666667
SR(39) = 350.000
ST(39) = 180.000
SKI(39) = 39
SX(40) = 475.000000000
SY(40) = 0.000000000
SZ(40) = 11.666666667
SR(40) = 475.000
ST(40) = 0.000
SKI(40) = 40
SX(41) = 458.814767487
SY(41) = 122.939046424
SZ(41) = 11.666666667
SR(41) = 475.000
ST(41) = 15.000
SKI(41) = 41
SX(42) = 411.362066798
SY(42) = 237.500000000
SZ(42) = 11.666666667
SR(42) = 475.000
ST(42) = 30.000
SKI(42) = 42
SX(43) = 335.875721064
SY(43) = 335.875721064
SZ(43) = 11.666666667
SR(43) = 475.000
ST(43) = 45.000
SKI(43) = 43
SX(44) = 237.500000000
SY(44) = 411.362066798
SZ(44) = 11.666666667
SR(44) = 475.000
ST(44) = 60.000
SKI(44) = 44
SX(45) = 122.939046424
SY(45) = 458.814767487
SZ(45) = 11.666666667
SR(45) = 475.000
ST(45) = 75.000
SKI(45) = 45
SX(46) = 0.000000000
SY(46) = 475.000000000
SZ(46) = 11.666666667
SR(46) = 475.000
ST(46) = 90.000
SKI(46) = 46
SX(47) = -122.939046424
SY(47) = 458.814767487
SZ(47) = 11.666666667
SR(47) = 475.000
ST(47) = 105.000
SKI(47) = 47
SX(48) = -237.500000000
SY(48) = 411.362066798
SZ(48) = 11.666666667
SR(48) = 475.000
ST(48) = 120.000
SKI(48) = 48
SX(49) = -335.875721064
SY(49) = 335.875721064
SZ(49) = 11.666666667
SR(49) = 475.000
ST(49) = 135.000
SKI(49) = 49
SX(50) = -411.362066798
SY(50) = 237.500000000
SZ(50) = 11.666666667
SR(50) = 475.000
ST(50) = 150.000
SKI(50) = 50
SX(51) = -458.814767487
SY(51) = 122.939046424
SZ(51) = 11.666666667
SR(51) = 475.000
ST(51) = 165.000
SKI(51) = 51
SX(52) = -475.000000000
SY(52) = 0.000000000
SZ(52) = 11.666666667
SR(52) = 475.000
ST(52) = 180.000
SKI(52) = 52
SX(53) = 600.000000000
SY(53) = 0.000000000
SZ(53) = 11.666666667
SR(53) = 600.000
ST(53) = 0.000
SKI(53) = 53
SX(54) = 579.555495773
SY(54) = 155.291427062
SZ(54) = 11.666666667
SR(54) = 600.000
ST(54) = 15.000
SKI(54) = 54
SX(55) = 519.615242271
SY(55) = 300.000000000
SZ(55) = 11.666666667
SR(55) = 600.000
ST(55) = 30.000
SKI(55) = 55
SX(56) = 424.264068712
SY(56) = 424.264068712
SZ(56) = 11.666666667
SR(56) = 600.000
ST(56) = 45.000
SKI(56) = 56
SX(57) = 300.000000000
SY(57) = 519.615242271
SZ(57) = 11.666666667
SR(57) = 600.000
ST(57) = 60.000
SKI(57) = 57
SX(58) = 155.291427062
SY(58) = 579.555495773
SZ(58) = 11.666666667
SR(58) = 600.000
ST(58) = 75.000
SKI(58) = 58
SX(59) = 0.000000000
SY(59) = 600.000000000
SZ(59) = 11.666666667
SR(59) = 600.000
ST(59) = 90.000
SKI(59) = 59
SX(60) = -155.291427062
SY(60) = 579.555495773
SZ(60) = 11.666666667
SR(60) = 600.000
ST(60) = 105.000
SKI(60) = 60
SX(61) = -300.000000000
SY(61) = 519.615242271
SZ(61) = 11.666666667
SR(61) = 600.000
ST(61) = 120.000
SKI(61) = 61
SX(62) = -424.264068712
SY(62) = 424.264068712
SZ(62) = 11.666666667
SR(62) = 600.000
ST(62) = 135.000
SKI(62) = 62
SX(63) = -519.615242271
SY(63) = 300.000000000
SZ(63) = 11.666666667
SR(63) = 600.000
ST(63) = 150.000
SKI(63) = 63
SX(64) = -579.555495773
SY(64) = 155.291427062
SZ(64) = 11.666666667
SR(64) = 600.000
ST(64) = 165.000
SKI(64) = 64
SX(65) = -600.000000000
SY(65) = 0.000000000
SZ(65) = 11.666666667
SR(65) = 600.000
ST(65) = 180.000
SKI(65) = 65
SX(66) = 600.000000000
SY(66) = 0.000000000
SZ(66) = -11.666666667
SR(66) = 600.000
ST(66) = 0.000
SKI(66) = 66
SX(67) = 579.555495773
SY(67) = 155.291427062
SZ(67) = -11.666666667
SR(67) = 600.000
ST(67) = 15.000
SKI(67) = 67
SX(68) = 519.615242271
SY(68) = 300.000000000
SZ(68) = -11.666666667
SR(68) = 600.000
ST(68) = 30.000
SKI(68) = 68
SX(69) = 424.264068712
SY(69) = 424.264068712
SZ(69) = -11.666666667
SR(69) = 600.000
ST(69) = 45.000
SKI(69) = 69
SX(70) = 300.000000000
SY(70) = 519.615242271
SZ(70) = -11.666666667
SR(70) = 600.000
ST(70) = 60.000
SKI(70) = 70
SX(71) = 155.291427062
SY(71) = 579.555495773
SZ(71) = -11.666666667
SR(71) = 600.000
ST(71) = 75.000
SKI(71) = 71
SX(72) = 0.000000000
SY(72) = 600.000000000
SZ(72) = -11.666666667
SR(72) = 600.000
ST(72) = 90.000
SKI(72) = 72
SX(73) = -155.291427062
SY(73) = 579.555495773
SZ(73) = -11.666666667
SR(73) = 600.000
ST(73) = 105.000
SKI(73) = 73
SX(74) = -300.000000000
SY(74) = 519.615242271
SZ(74) = -11.666666667
SR(74) = 600.000
ST(74) = 120.000
SKI(74) = 74
SX(75) = -424.264068712
SY(75) = 424.264068712
SZ(75) = -11.666666667
SR(75) = 600.000
ST(75) = 135.000
SKI(75) = 75
SX(76) = -519.615242271
SY(76) = 300.000000000
SZ(76) = -11.666666667
SR(76) = 600.000
ST(76) = 150.000
SKI(76) = 76
SX(77) = -579.555495773
SY(77) = 155.291427062
SZ(77) = -11.666666667
SR(77) = 600.000
ST(77) = 165.000
SKI(77) = 77
SX(78) = -600.000000000
SY(78) = 0.000000000
SZ(78) = -11.666666667
SR(78) = 600.000
ST(78) = 180.000
SKI(78) = 78
STOL = 0.01
CSYS,0
*DO,K,1,NSAMP
  X1 = SX(K)-STOL
  X2 = SX(K)+STOL
  Y1 = SY(K)-STOL
  Y2 = SY(K)+STOL
  Z1 = SZ(K)-STOL
  Z2 = SZ(K)+STOL
  NSEL,S,LOC,X,X1,X2
  NSEL,R,LOC,Y,Y1,Y2
  NSEL,R,LOC,Z,Z1,Z2
  *GET,NC,NODE,0,COUNT
  *IF,NC,NE,1,THEN
    *MSG,FATAL
Sample node select did not return exactly one node.
  *ENDIF
  *GET,NN,NODE,0,NUM,MIN
  NS(K) = NN
*ENDDO
ALLSEL,ALL
*CFOPEN,ansys_p4_3d_h112_sc_coarse_samplecoords_e31m,txt
*VWRITE
('k r_mm theta_deg z_mm node')
*VWRITE,SKI(1),SR(1),ST(1),SZ(1),NS(1)
(F5.0, 3X, F10.3, 3X, F10.3, 3X, F10.4, 3X, F10.0)
*CFCLOS

! ---- raw nodal values, every mode x every sample, flat arrays ----
NTOT = NMODES*NSAMP
*DIM,OMI,ARRAY,NTOT
*DIM,OKI,ARRAY,NTOT
*DIM,OUX,ARRAY,NTOT
*DIM,OUY,ARRAY,NTOT
*DIM,OUZ,ARRAY,NTOT
*DIM,OVV,ARRAY,NTOT
*DO,I,1,NMODES
  SET,1,I
  *DO,K,1,NSAMP
    J = (I-1)*NSAMP+K
    NN = NS(K)
    *GET,GVX,NODE,NN,U,X
    *GET,GVY,NODE,NN,U,Y
    *GET,GVZ,NODE,NN,U,Z
    *GET,GVV,NODE,NN,VOLT
    OMI(J) = I
    OKI(J) = K
    OUX(J) = GVX
    OUY(J) = GVY
    OUZ(J) = GVZ
    OVV(J) = GVV
  *ENDDO
*ENDDO
*CFOPEN,ansys_p4_3d_h112_sc_coarse_samples_e31m,txt
*VWRITE
('mode k UX UY UZ VOLT')
*VWRITE,OMI(1),OKI(1),OUX(1),OUY(1),OUZ(1),OVV(1)
(F4.0, 1X, F5.0, 1X, E16.8, 1X, E16.8, 1X, E16.8, 1X, E16.8)
*CFCLOS
FINISH
